cimhub_docker/dss/Master.dss
clear
New circuit.psu_13_node_feeder_7
~ basekv=4.16 pu=1.00 phases=3 bus1=N650
~ Angle=30
~ MVAsc3=20000 MVASC1=21000

set earthmodel=carson

New Transformer.trans_N650_N630 phases=3 windings=2 conns=(wye, wye)
~ wdg=1 bus=N650 kV=4.16
~ wdg=2 bus=N630 kV=2.4

// New RegControl.N650_N630 transformer=trans_N650_N630 winding=2 vreg=120 band=2 ptratio=20 ctprim=700 R=3 X=7.5


New Linecode.2P_OH_Code0 units=km nphases=2
~ rmatrix = [0.086666667 | 0.02907197  0.087405303]
~ xmatrix = [0.204166667 | 0.072897727  0.201723485]
~ cmatrix = [2.569829596 | -0.52995137  2.597460011]

New Linecode.3P_OH_Code1 units=km nphases=3
~ rmatrix = [0.086666667 | 0.029545455 0.088371212 | 0.02907197 0.029924242 0.087405303]
~ xmatrix = [0.204166667 | 0.095018939 0.198522727 | 0.072897727 0.080227273 0.201723485]
~ cmatrix = [2.851710072 | -0.920293787  3.004631862 | -0.350755566  -0.585011253 2.71134756]


New Linecode.2P_OH_Code2 units=km nphases=2
~ rmatrix = [0.086666667 | 0.02907197  0.087405303]
~ xmatrix = [0.204166667 | 0.072897727  0.201723485]
~ cmatrix = [2.569829596 | -0.52995137  2.597460011]

New Linecode.1P_OH_Code3 units=km nphases=1
~ rmatrix = [0.251742424]
~ xmatrix = [0.255208333]
~ cmatrix = [2.270366128]


New Linecode.1P_UG_Code4 units=km nphases=1
~ rmatrix = [0.251742424]
~ xmatrix = [0.255208333]
~ cmatrix = [2.270366128]

New Linecode.3P_UG_Code5 units=km nphases=3
~ rmatrix = [0.086666667 | 0.029545455 0.088371212 | 0.02907197 0.029924242 0.087405303]
~ xmatrix = [0.204166667 | 0.095018939 0.198522727 | 0.072897727 0.080227273 0.201723485]
~ cmatrix = [2.851710072 | -0.920293787  3.004631862 | -0.350755566  -0.585011253 2.71134756]

New Linecode.3P_OH_Code6 units=km nphases=3
~ rmatrix = [0.086666667 | 0.029545455 0.088371212 | 0.02907197 0.029924242 0.087405303]
~ xmatrix = [0.204166667 | 0.095018939 0.198522727 | 0.072897727 0.080227273 0.201723485]
~ cmatrix = [2.851710072 | -0.920293787  3.004631862 | -0.350755566  -0.585011253 2.71134756]

New Linecode.3P_Code7 units=km nphases=3
~ rmatrix = [0.086666667 | 0.029545455 0.088371212 | 0.02907197 0.029924242 0.087405303]
~ xmatrix = [0.204166667 | 0.095018939 0.198522727 | 0.072897727 0.080227273 0.201723485]
~ cmatrix = [2.851710072 | -0.920293787  3.004631862 | -0.350755566  -0.585011253 2.71134756]

New Linecode.1P_OH_Code8 units=km nphases=1
~ rmatrix = [0.251742424]
~ xmatrix = [0.255208333]
~ cmatrix = [2.270366128]

New Linecode.1P_OH_Code9 units=km nphases=1
~ rmatrix = [0.251742424]
~ xmatrix = [0.255208333]
~ cmatrix = [2.270366128]

New Linecode.2P_Code10 units=km nphases=2
~ rmatrix = [0.086666667 | 0.02907197  0.087405303]
~ xmatrix = [0.204166667 | 0.072897727  0.201723485]
~ cmatrix = [2.569829596 | -0.52995137  2.597460011]

New Line.OL630-632 Units=km Length=0.6096
~ bus1=N630.1.2.3
~ bus2=N632.1.2.3 switch=n  phases=3 Linecode=3P_OH_Code1

New Line.OL632-645 Units=km Length=0.1524
~ bus1=N632.2.3
~ bus2=N645.2.3 switch=n  phases=2 Linecode=2P_OH_Code0

New Line.OL645-646 Units=km Length=0.09144
~ bus1=N645.2.3
~ bus2=N646.2.3 switch=n  phases=2 Linecode=2P_OH_Code0

New Line.OL632-6321 Units=km Length=0.1524
~ bus1=N632.1.2.3
~ bus2=N6321.1.2.3 switch=n  phases=3 Linecode=3P_OH_Code1

New Line.OL6321-671 Units=km Length=0.457
~ bus1=N6321.1.2.3
~ bus2=N671.1.2.3 switch=n  phases=3 Linecode=3P_OH_Code1

New Line.OL671-680 Units=km Length=0.3048
~ bus1=N671.1.2.3
~ bus2=N680.1.2.3 switch=n  phases=3 Linecode=3P_OH_Code1

New Line.OL671-684 Units=km Length=0.09144
~ bus1=N671.1.3
~ bus2=N684.1.3 switch=n  phases=2 Linecode=2P_OH_Code2

New Line.OL684-611 Units=km Length=0.09144
~ bus1=N684.3
~ bus2=N611.3 switch=n  phases=1 Linecode=1P_OH_Code3

New Line.UL684-652 Units=km Length=0.24384
~ bus1=N684.1
~ bus2=N652.1 switch=n  phases=1 Linecode=1P_UG_Code4

New Line.UL692-675 Units=km Length=0.1524
~ bus1=N692.1.2.3
~ bus2=N675.1.2.3 switch=n  phases=3 Linecode=3P_UG_Code5

New Line.UL632-633 Units=km Length=0.1524
~ bus1=N632.1.2.3
~ bus2=N633.1.2.3 switch=n  phases=3 Linecode=3P_OH_Code6

New Line.S671-692 Units=km Length=0.001
~ bus1=N671.1.2.3
~ bus2=N692.1.2.3 switch=n phases=3 Linecode=3P_Code7

New Line.OL_652_A length=50 units=ft
~ bus1=N652.1
~ bus2=meter_652_A.1 switch=n  phases=1 Linecode=1P_OH_Code8

New Line.OL_611_C length=50 units=ft
~ bus1=N611.3
~ bus2=meter_611_C.3 switch=n  phases=1 Linecode=1P_OH_Code3

New Line.OL_684_A length=50 units=ft
~ bus1=N684.1
~ bus2=meter_684_A.1 switch=n  phases=1 Linecode=1P_OH_Code8

New Line.OL_684_C length=50 units=ft
~ bus1=N684.3
~ bus2=meter_684_C.3 switch=n  phases=1 Linecode=1P_OH_Code3

New Line.OL_645_B length=50 units=ft
~ bus1=N645.2
~ bus2=meter_645_B.2 switch=n  phases=1 Linecode=1P_OH_Code9

New Line.OL_645_C length=50 units=ft
~ bus1=N645.3
~ bus2=meter_645_C.3 switch=n  phases=1 Linecode=1P_OH_Code3

New Line.OL_633_A length=50 units=ft
~ bus1=N633.1
~ bus2=meter_633_A.1 switch=n  phases=1 Linecode=1P_OH_Code8

New Line.OL_633_B length=50 units=ft
~ bus1=N633.2
~ bus2=meter_633_B.2 switch=n  phases=1 Linecode=1P_OH_Code9

New Line.OL_633_C length=50 units=ft
~ bus1=N633.3
~ bus2=meter_633_C.3 switch=n  phases=1 Linecode=1P_OH_Code3

New Line.OL_632_A length=50 units=ft
~ bus1=N632.1
~ bus2=meter_632_A.1 switch=n  phases=1 Linecode=1P_OH_Code8

New Line.OL_632_B length=50 units=ft
~ bus1=N632.2
~ bus2=meter_632_B.2 switch=n  phases=1 Linecode=1P_OH_Code9

New Line.OL_632_C length=50 units=ft
~ bus1=N632.3
~ bus2=meter_632_C.3 switch=n  phases=1 Linecode=1P_OH_Code3

New Line.OL_692_A length=50 units=ft
~ bus1=N692.1
~ bus2=meter_692_A.1 switch=n  phases=1 Linecode=1P_OH_Code8

New Line.OL_692_B length=50 units=ft
~ bus1=N692.2
~ bus2=meter_692_B.2 switch=n  phases=1 Linecode=1P_OH_Code9

New Line.OL_692_C length=50 units=ft
~ bus1=N692.3
~ bus2=meter_692_C.3 switch=n  phases=1 Linecode=1P_OH_Code3

New Line.OL_675_A length=50 units=ft
~ bus1=N675.1
~ bus2=meter_675_A.1 switch=n  phases=1 Linecode=1P_OH_Code8

New Line.OL_675_B length=50 units=ft
~ bus1=N675.2
~ bus2=meter_675_B.2 switch=n  phases=1 Linecode=1P_OH_Code9

New Line.OL_675_C length=50 units=ft
~ bus1=N675.3
~ bus2=meter_675_C.3 switch=n  phases=1 Linecode=1P_OH_Code3

New Line.OL_671_A length=50 units=ft
~ bus1=N671.1
~ bus2=meter_671_A.1 switch=n  phases=1 Linecode=1P_OH_Code8

New Line.OL_671_B length=50 units=ft
~ bus1=N671.2
~ bus2=meter_671_B.2 switch=n  phases=1 Linecode=1P_OH_Code9

New Line.OL_671_C length=50 units=ft
~ bus1=N671.3
~ bus2=meter_671_C.3 switch=n  phases=1 Linecode=1P_OH_Code3

New Line.OL_680_A length=50 units=ft
~ bus1=N680.1
~ bus2=meter_680_A.1 switch=n  phases=1 Linecode=1P_OH_Code8

New Line.OL_680_B length=50 units=ft
~ bus1=N680.2
~ bus2=meter_680_B.2 switch=n  phases=1 Linecode=1P_OH_Code9

New Line.OL_680_C length=50 units=ft
~ bus1=N680.3
~ bus2=meter_680_C.3 switch=n  phases=1 Linecode=1P_OH_Code3

New Line.OL_652_A_xfmr_652_A_1 length=50 units=ft
~ bus1=meter_652_A.1
~ bus2=xfmr_meter_652_A_1.1 switch=n  phases=1 Linecode=1P_OH_Code8

New Line.trip_line_652_A_h_1 length=50 units=ft
~ bus1=trip_node_652_A_1.1.2
~ bus2=trip_load_652_A_h_1.1.2 switch=n  phases=2 Linecode=2P_Code10

New Line.trip_line_652_A_h_2 length=50 units=ft
~ bus1=trip_node_652_A_1.1.2
~ bus2=trip_load_652_A_h_2.1.2 switch=n  phases=2 Linecode=2P_Code10

New Line.trip_line_652_A_h_3 length=50 units=ft
~ bus1=trip_node_652_A_1.1.2
~ bus2=trip_load_652_A_h_3.1.2 switch=n  phases=2 Linecode=2P_Code10

New Line.trip_line_652_A_h_4 length=50 units=ft
~ bus1=trip_node_652_A_1.1.2
~ bus2=trip_load_652_A_h_4.1.2 switch=n  phases=2 Linecode=2P_Code10

New Line.trip_line_652_A_h_5 length=50 units=ft
~ bus1=trip_node_652_A_1.1.2
~ bus2=trip_load_652_A_h_5.1.2 switch=n  phases=2 Linecode=2P_Code10

New Line.trip_line_652_A_h_6 length=50 units=ft
~ bus1=trip_node_652_A_1.1.2
~ bus2=trip_load_652_A_h_6.1.2 switch=n  phases=2 Linecode=2P_Code10

New Line.trip_line_652_A_h_7 length=50 units=ft
~ bus1=trip_node_652_A_1.1.2
~ bus2=trip_load_652_A_h_7.1.2 switch=n  phases=2 Linecode=2P_Code10

New Line.trip_line_652_A_h_8 length=50 units=ft
~ bus1=trip_node_652_A_1.1.2
~ bus2=trip_load_652_A_h_8.1.2 switch=n  phases=2 Linecode=2P_Code10

New Line.OL_652_A_xfmr_652_A_2 length=50 units=ft
~ bus1=meter_652_A.1
~ bus2=xfmr_meter_652_A_2.1 switch=n  phases=1 Linecode=1P_OH_Code8

New Line.trip_line_652_A_h_9 length=50 units=ft
~ bus1=trip_node_652_A_2.1.2
~ bus2=trip_load_652_A_h_9.1.2 switch=n  phases=2 Linecode=2P_Code10

New Line.trip_line_652_A_h_10 length=50 units=ft
~ bus1=trip_node_652_A_2.1.2
~ bus2=trip_load_652_A_h_10.1.2 switch=n  phases=2 Linecode=2P_Code10

New Line.trip_line_652_A_h_11 length=50 units=ft
~ bus1=trip_node_652_A_2.1.2
~ bus2=trip_load_652_A_h_11.1.2 switch=n  phases=2 Linecode=2P_Code10

New Line.trip_line_652_A_h_12 length=50 units=ft
~ bus1=trip_node_652_A_2.1.2
~ bus2=trip_load_652_A_h_12.1.2 switch=n  phases=2 Linecode=2P_Code10

New Line.trip_line_652_A_h_13 length=50 units=ft
~ bus1=trip_node_652_A_2.1.2
~ bus2=trip_load_652_A_h_13.1.2 switch=n  phases=2 Linecode=2P_Code10

New Line.trip_line_652_A_h_14 length=50 units=ft
~ bus1=trip_node_652_A_2.1.2
~ bus2=trip_load_652_A_h_14.1.2 switch=n  phases=2 Linecode=2P_Code10

New Line.trip_line_652_A_h_15 length=50 units=ft
~ bus1=trip_node_652_A_2.1.2
~ bus2=trip_load_652_A_h_15.1.2 switch=n  phases=2 Linecode=2P_Code10

New Line.trip_line_652_A_h_16 length=50 units=ft
~ bus1=trip_node_652_A_2.1.2
~ bus2=trip_load_652_A_h_16.1.2 switch=n  phases=2 Linecode=2P_Code10

New Line.OL_652_A_xfmr_652_A_3 length=50 units=ft
~ bus1=meter_652_A.1
~ bus2=xfmr_meter_652_A_3.1 switch=n  phases=1 Linecode=1P_OH_Code8

New Line.trip_line_652_A_h_17 length=50 units=ft
~ bus1=trip_node_652_A_3.1.2
~ bus2=trip_load_652_A_h_17.1.2 switch=n  phases=2 Linecode=2P_Code10

New Line.trip_line_652_A_h_18 length=50 units=ft
~ bus1=trip_node_652_A_3.1.2
~ bus2=trip_load_652_A_h_18.1.2 switch=n  phases=2 Linecode=2P_Code10

New Line.trip_line_652_A_h_19 length=50 units=ft
~ bus1=trip_node_652_A_3.1.2
~ bus2=trip_load_652_A_h_19.1.2 switch=n  phases=2 Linecode=2P_Code10

New Line.trip_line_652_A_h_20 length=50 units=ft
~ bus1=trip_node_652_A_3.1.2
~ bus2=trip_load_652_A_h_20.1.2 switch=n  phases=2 Linecode=2P_Code10

New Line.trip_line_652_A_h_21 length=50 units=ft
~ bus1=trip_node_652_A_3.1.2
~ bus2=trip_load_652_A_h_21.1.2 switch=n  phases=2 Linecode=2P_Code10

New Line.trip_line_652_A_h_22 length=50 units=ft
~ bus1=trip_node_652_A_3.1.2
~ bus2=trip_load_652_A_h_22.1.2 switch=n  phases=2 Linecode=2P_Code10

New Line.trip_line_652_A_h_23 length=50 units=ft
~ bus1=trip_node_652_A_3.1.2
~ bus2=trip_load_652_A_h_23.1.2 switch=n  phases=2 Linecode=2P_Code10

New Line.trip_line_652_A_h_24 length=50 units=ft
~ bus1=trip_node_652_A_3.1.2
~ bus2=trip_load_652_A_h_24.1.2 switch=n  phases=2 Linecode=2P_Code10

New Line.OL_652_A_xfmr_652_A_4 length=50 units=ft
~ bus1=meter_652_A.1
~ bus2=xfmr_meter_652_A_4.1 switch=n  phases=1 Linecode=1P_OH_Code8

New Line.trip_line_652_A_h_25 length=50 units=ft
~ bus1=trip_node_652_A_4.1.2
~ bus2=trip_load_652_A_h_25.1.2 switch=n  phases=2 Linecode=2P_Code10

New Line.trip_line_652_A_h_26 length=50 units=ft
~ bus1=trip_node_652_A_4.1.2
~ bus2=trip_load_652_A_h_26.1.2 switch=n  phases=2 Linecode=2P_Code10

New Line.trip_line_652_A_h_27 length=50 units=ft
~ bus1=trip_node_652_A_4.1.2
~ bus2=trip_load_652_A_h_27.1.2 switch=n  phases=2 Linecode=2P_Code10

New Line.trip_line_652_A_h_28 length=50 units=ft
~ bus1=trip_node_652_A_4.1.2
~ bus2=trip_load_652_A_h_28.1.2 switch=n  phases=2 Linecode=2P_Code10

New Line.trip_line_652_A_h_29 length=50 units=ft
~ bus1=trip_node_652_A_4.1.2
~ bus2=trip_load_652_A_h_29.1.2 switch=n  phases=2 Linecode=2P_Code10

New Line.trip_line_652_A_h_30 length=50 units=ft
~ bus1=trip_node_652_A_4.1.2
~ bus2=trip_load_652_A_h_30.1.2 switch=n  phases=2 Linecode=2P_Code10

New Line.trip_line_652_A_h_31 length=50 units=ft
~ bus1=trip_node_652_A_4.1.2
~ bus2=trip_load_652_A_h_31.1.2 switch=n  phases=2 Linecode=2P_Code10

New Line.trip_line_652_A_h_32 length=50 units=ft
~ bus1=trip_node_652_A_4.1.2
~ bus2=trip_load_652_A_h_32.1.2 switch=n  phases=2 Linecode=2P_Code10

New Line.OL_652_A_xfmr_652_A_5 length=50 units=ft
~ bus1=meter_652_A.1
~ bus2=xfmr_meter_652_A_5.1 switch=n  phases=1 Linecode=1P_OH_Code8

New Line.trip_line_652_A_h_33 length=50 units=ft
~ bus1=trip_node_652_A_5.1.2
~ bus2=trip_load_652_A_h_33.1.2 switch=n  phases=2 Linecode=2P_Code10

New Line.trip_line_652_A_h_34 length=50 units=ft
~ bus1=trip_node_652_A_5.1.2
~ bus2=trip_load_652_A_h_34.1.2 switch=n  phases=2 Linecode=2P_Code10

New Line.trip_line_652_A_h_35 length=50 units=ft
~ bus1=trip_node_652_A_5.1.2
~ bus2=trip_load_652_A_h_35.1.2 switch=n  phases=2 Linecode=2P_Code10

New Line.trip_line_652_A_h_36 length=50 units=ft
~ bus1=trip_node_652_A_5.1.2
~ bus2=trip_load_652_A_h_36.1.2 switch=n  phases=2 Linecode=2P_Code10

New Line.trip_line_652_A_h_37 length=50 units=ft
~ bus1=trip_node_652_A_5.1.2
~ bus2=trip_load_652_A_h_37.1.2 switch=n  phases=2 Linecode=2P_Code10

New Line.trip_line_652_A_h_38 length=50 units=ft
~ bus1=trip_node_652_A_5.1.2
~ bus2=trip_load_652_A_h_38.1.2 switch=n  phases=2 Linecode=2P_Code10

New Line.trip_line_652_A_h_39 length=50 units=ft
~ bus1=trip_node_652_A_5.1.2
~ bus2=trip_load_652_A_h_39.1.2 switch=n  phases=2 Linecode=2P_Code10

New Line.trip_line_652_A_h_40 length=50 units=ft
~ bus1=trip_node_652_A_5.1.2
~ bus2=trip_load_652_A_h_40.1.2 switch=n  phases=2 Linecode=2P_Code10

New Line.OL_611_C_xfmr_611_C_1 length=50 units=ft
~ bus1=meter_611_C.3
~ bus2=xfmr_meter_611_C_1.3 switch=n  phases=1 Linecode=1P_OH_Code3

New Line.trip_line_611_C_h_1 length=50 units=ft
~ bus1=trip_node_611_C_1.1.2
~ bus2=trip_load_611_C_h_1.1.2 switch=n  phases=2 Linecode=2P_Code10

New Line.trip_line_611_C_h_2 length=50 units=ft
~ bus1=trip_node_611_C_1.1.2
~ bus2=trip_load_611_C_h_2.1.2 switch=n  phases=2 Linecode=2P_Code10

New Line.trip_line_611_C_h_3 length=50 units=ft
~ bus1=trip_node_611_C_1.1.2
~ bus2=trip_load_611_C_h_3.1.2 switch=n  phases=2 Linecode=2P_Code10

New Line.trip_line_611_C_h_4 length=50 units=ft
~ bus1=trip_node_611_C_1.1.2
~ bus2=trip_load_611_C_h_4.1.2 switch=n  phases=2 Linecode=2P_Code10

New Line.trip_line_611_C_h_5 length=50 units=ft
~ bus1=trip_node_611_C_1.1.2
~ bus2=trip_load_611_C_h_5.1.2 switch=n  phases=2 Linecode=2P_Code10

New Line.trip_line_611_C_h_6 length=50 units=ft
~ bus1=trip_node_611_C_1.1.2
~ bus2=trip_load_611_C_h_6.1.2 switch=n  phases=2 Linecode=2P_Code10

New Line.trip_line_611_C_h_7 length=50 units=ft
~ bus1=trip_node_611_C_1.1.2
~ bus2=trip_load_611_C_h_7.1.2 switch=n  phases=2 Linecode=2P_Code10

New Line.trip_line_611_C_h_8 length=50 units=ft
~ bus1=trip_node_611_C_1.1.2
~ bus2=trip_load_611_C_h_8.1.2 switch=n  phases=2 Linecode=2P_Code10

New Line.OL_611_C_xfmr_611_C_2 length=50 units=ft
~ bus1=meter_611_C.3
~ bus2=xfmr_meter_611_C_2.3 switch=n  phases=1 Linecode=1P_OH_Code3

New Line.trip_line_611_C_h_9 length=50 units=ft
~ bus1=trip_node_611_C_2.1.2
~ bus2=trip_load_611_C_h_9.1.2 switch=n  phases=2 Linecode=2P_Code10

New Line.trip_line_611_C_h_10 length=50 units=ft
~ bus1=trip_node_611_C_2.1.2
~ bus2=trip_load_611_C_h_10.1.2 switch=n  phases=2 Linecode=2P_Code10

New Line.trip_line_611_C_h_11 length=50 units=ft
~ bus1=trip_node_611_C_2.1.2
~ bus2=trip_load_611_C_h_11.1.2 switch=n  phases=2 Linecode=2P_Code10

New Line.trip_line_611_C_h_12 length=50 units=ft
~ bus1=trip_node_611_C_2.1.2
~ bus2=trip_load_611_C_h_12.1.2 switch=n  phases=2 Linecode=2P_Code10

New Line.trip_line_611_C_h_13 length=50 units=ft
~ bus1=trip_node_611_C_2.1.2
~ bus2=trip_load_611_C_h_13.1.2 switch=n  phases=2 Linecode=2P_Code10

New Line.trip_line_611_C_h_14 length=50 units=ft
~ bus1=trip_node_611_C_2.1.2
~ bus2=trip_load_611_C_h_14.1.2 switch=n  phases=2 Linecode=2P_Code10

New Line.trip_line_611_C_h_15 length=50 units=ft
~ bus1=trip_node_611_C_2.1.2
~ bus2=trip_load_611_C_h_15.1.2 switch=n  phases=2 Linecode=2P_Code10

New Line.trip_line_611_C_h_16 length=50 units=ft
~ bus1=trip_node_611_C_2.1.2
~ bus2=trip_load_611_C_h_16.1.2 switch=n  phases=2 Linecode=2P_Code10

New Line.OL_611_C_xfmr_611_C_3 length=50 units=ft
~ bus1=meter_611_C.3
~ bus2=xfmr_meter_611_C_3.3 switch=n  phases=1 Linecode=1P_OH_Code3

New Line.trip_line_611_C_h_17 length=50 units=ft
~ bus1=trip_node_611_C_3.1.2
~ bus2=trip_load_611_C_h_17.1.2 switch=n  phases=2 Linecode=2P_Code10

New Line.trip_line_611_C_h_18 length=50 units=ft
~ bus1=trip_node_611_C_3.1.2
~ bus2=trip_load_611_C_h_18.1.2 switch=n  phases=2 Linecode=2P_Code10

New Line.trip_line_611_C_h_19 length=50 units=ft
~ bus1=trip_node_611_C_3.1.2
~ bus2=trip_load_611_C_h_19.1.2 switch=n  phases=2 Linecode=2P_Code10

New Line.trip_line_611_C_h_20 length=50 units=ft
~ bus1=trip_node_611_C_3.1.2
~ bus2=trip_load_611_C_h_20.1.2 switch=n  phases=2 Linecode=2P_Code10

New Line.trip_line_611_C_h_21 length=50 units=ft
~ bus1=trip_node_611_C_3.1.2
~ bus2=trip_load_611_C_h_21.1.2 switch=n  phases=2 Linecode=2P_Code10

New Line.trip_line_611_C_h_22 length=50 units=ft
~ bus1=trip_node_611_C_3.1.2
~ bus2=trip_load_611_C_h_22.1.2 switch=n  phases=2 Linecode=2P_Code10

New Line.trip_line_611_C_h_23 length=50 units=ft
~ bus1=trip_node_611_C_3.1.2
~ bus2=trip_load_611_C_h_23.1.2 switch=n  phases=2 Linecode=2P_Code10

New Line.trip_line_611_C_h_24 length=50 units=ft
~ bus1=trip_node_611_C_3.1.2
~ bus2=trip_load_611_C_h_24.1.2 switch=n  phases=2 Linecode=2P_Code10

New Line.OL_611_C_xfmr_611_C_4 length=50 units=ft
~ bus1=meter_611_C.3
~ bus2=xfmr_meter_611_C_4.3 switch=n  phases=1 Linecode=1P_OH_Code3

New Line.trip_line_611_C_h_25 length=50 units=ft
~ bus1=trip_node_611_C_4.1.2
~ bus2=trip_load_611_C_h_25.1.2 switch=n  phases=2 Linecode=2P_Code10

New Line.trip_line_611_C_h_26 length=50 units=ft
~ bus1=trip_node_611_C_4.1.2
~ bus2=trip_load_611_C_h_26.1.2 switch=n  phases=2 Linecode=2P_Code10

New Line.trip_line_611_C_h_27 length=50 units=ft
~ bus1=trip_node_611_C_4.1.2
~ bus2=trip_load_611_C_h_27.1.2 switch=n  phases=2 Linecode=2P_Code10

New Line.trip_line_611_C_h_28 length=50 units=ft
~ bus1=trip_node_611_C_4.1.2
~ bus2=trip_load_611_C_h_28.1.2 switch=n  phases=2 Linecode=2P_Code10

New Line.trip_line_611_C_h_29 length=50 units=ft
~ bus1=trip_node_611_C_4.1.2
~ bus2=trip_load_611_C_h_29.1.2 switch=n  phases=2 Linecode=2P_Code10

New Line.trip_line_611_C_h_30 length=50 units=ft
~ bus1=trip_node_611_C_4.1.2
~ bus2=trip_load_611_C_h_30.1.2 switch=n  phases=2 Linecode=2P_Code10

New Line.trip_line_611_C_h_31 length=50 units=ft
~ bus1=trip_node_611_C_4.1.2
~ bus2=trip_load_611_C_h_31.1.2 switch=n  phases=2 Linecode=2P_Code10

New Line.trip_line_611_C_h_32 length=50 units=ft
~ bus1=trip_node_611_C_4.1.2
~ bus2=trip_load_611_C_h_32.1.2 switch=n  phases=2 Linecode=2P_Code10

New Line.OL_611_C_xfmr_611_C_5 length=50 units=ft
~ bus1=meter_611_C.3
~ bus2=xfmr_meter_611_C_5.3 switch=n  phases=1 Linecode=1P_OH_Code3

New Line.trip_line_611_C_h_33 length=50 units=ft
~ bus1=trip_node_611_C_5.1.2
~ bus2=trip_load_611_C_h_33.1.2 switch=n  phases=2 Linecode=2P_Code10

New Line.trip_line_611_C_h_34 length=50 units=ft
~ bus1=trip_node_611_C_5.1.2
~ bus2=trip_load_611_C_h_34.1.2 switch=n  phases=2 Linecode=2P_Code10

New Line.trip_line_611_C_h_35 length=50 units=ft
~ bus1=trip_node_611_C_5.1.2
~ bus2=trip_load_611_C_h_35.1.2 switch=n  phases=2 Linecode=2P_Code10

New Line.trip_line_611_C_h_36 length=50 units=ft
~ bus1=trip_node_611_C_5.1.2
~ bus2=trip_load_611_C_h_36.1.2 switch=n  phases=2 Linecode=2P_Code10

New Line.trip_line_611_C_h_37 length=50 units=ft
~ bus1=trip_node_611_C_5.1.2
~ bus2=trip_load_611_C_h_37.1.2 switch=n  phases=2 Linecode=2P_Code10

New Line.trip_line_611_C_h_38 length=50 units=ft
~ bus1=trip_node_611_C_5.1.2
~ bus2=trip_load_611_C_h_38.1.2 switch=n  phases=2 Linecode=2P_Code10

New Line.trip_line_611_C_h_39 length=50 units=ft
~ bus1=trip_node_611_C_5.1.2
~ bus2=trip_load_611_C_h_39.1.2 switch=n  phases=2 Linecode=2P_Code10

New Line.trip_line_611_C_h_40 length=50 units=ft
~ bus1=trip_node_611_C_5.1.2
~ bus2=trip_load_611_C_h_40.1.2 switch=n  phases=2 Linecode=2P_Code10

New Line.OL_684_C_xfmr_684_C_1 length=50 units=ft
~ bus1=meter_684_C.3
~ bus2=xfmr_meter_684_C_1.3 switch=n  phases=1 Linecode=1P_OH_Code3

New Line.trip_line_684_C_h_1 length=50 units=ft
~ bus1=trip_node_684_C_1.1.2
~ bus2=trip_load_684_C_h_1.1.2 switch=n  phases=2 Linecode=2P_Code10

New Line.trip_line_684_C_h_2 length=50 units=ft
~ bus1=trip_node_684_C_1.1.2
~ bus2=trip_load_684_C_h_2.1.2 switch=n  phases=2 Linecode=2P_Code10

New Line.trip_line_684_C_h_3 length=50 units=ft
~ bus1=trip_node_684_C_1.1.2
~ bus2=trip_load_684_C_h_3.1.2 switch=n  phases=2 Linecode=2P_Code10

New Line.trip_line_684_C_h_4 length=50 units=ft
~ bus1=trip_node_684_C_1.1.2
~ bus2=trip_load_684_C_h_4.1.2 switch=n  phases=2 Linecode=2P_Code10

New Line.trip_line_684_C_h_5 length=50 units=ft
~ bus1=trip_node_684_C_1.1.2
~ bus2=trip_load_684_C_h_5.1.2 switch=n  phases=2 Linecode=2P_Code10

New Line.trip_line_684_C_h_6 length=50 units=ft
~ bus1=trip_node_684_C_1.1.2
~ bus2=trip_load_684_C_h_6.1.2 switch=n  phases=2 Linecode=2P_Code10

New Line.trip_line_684_C_h_7 length=50 units=ft
~ bus1=trip_node_684_C_1.1.2
~ bus2=trip_load_684_C_h_7.1.2 switch=n  phases=2 Linecode=2P_Code10

New Line.trip_line_684_C_h_8 length=50 units=ft
~ bus1=trip_node_684_C_1.1.2
~ bus2=trip_load_684_C_h_8.1.2 switch=n  phases=2 Linecode=2P_Code10

New Line.OL_684_C_xfmr_684_C_2 length=50 units=ft
~ bus1=meter_684_C.3
~ bus2=xfmr_meter_684_C_2.3 switch=n  phases=1 Linecode=1P_OH_Code3

New Line.trip_line_684_C_h_9 length=50 units=ft
~ bus1=trip_node_684_C_2.1.2
~ bus2=trip_load_684_C_h_9.1.2 switch=n  phases=2 Linecode=2P_Code10

New Line.trip_line_684_C_h_10 length=50 units=ft
~ bus1=trip_node_684_C_2.1.2
~ bus2=trip_load_684_C_h_10.1.2 switch=n  phases=2 Linecode=2P_Code10

New Line.trip_line_684_C_h_11 length=50 units=ft
~ bus1=trip_node_684_C_2.1.2
~ bus2=trip_load_684_C_h_11.1.2 switch=n  phases=2 Linecode=2P_Code10

New Line.trip_line_684_C_h_12 length=50 units=ft
~ bus1=trip_node_684_C_2.1.2
~ bus2=trip_load_684_C_h_12.1.2 switch=n  phases=2 Linecode=2P_Code10

New Line.trip_line_684_C_h_13 length=50 units=ft
~ bus1=trip_node_684_C_2.1.2
~ bus2=trip_load_684_C_h_13.1.2 switch=n  phases=2 Linecode=2P_Code10

New Line.trip_line_684_C_h_14 length=50 units=ft
~ bus1=trip_node_684_C_2.1.2
~ bus2=trip_load_684_C_h_14.1.2 switch=n  phases=2 Linecode=2P_Code10

New Line.trip_line_684_C_h_15 length=50 units=ft
~ bus1=trip_node_684_C_2.1.2
~ bus2=trip_load_684_C_h_15.1.2 switch=n  phases=2 Linecode=2P_Code10

New Line.trip_line_684_C_h_16 length=50 units=ft
~ bus1=trip_node_684_C_2.1.2
~ bus2=trip_load_684_C_h_16.1.2 switch=n  phases=2 Linecode=2P_Code10

New Line.OL_684_C_xfmr_684_C_3 length=50 units=ft
~ bus1=meter_684_C.3
~ bus2=xfmr_meter_684_C_3.3 switch=n  phases=1 Linecode=1P_OH_Code3

New Line.trip_line_684_C_h_17 length=50 units=ft
~ bus1=trip_node_684_C_3.1.2
~ bus2=trip_load_684_C_h_17.1.2 switch=n  phases=2 Linecode=2P_Code10

New Line.trip_line_684_C_h_18 length=50 units=ft
~ bus1=trip_node_684_C_3.1.2
~ bus2=trip_load_684_C_h_18.1.2 switch=n  phases=2 Linecode=2P_Code10

New Line.trip_line_684_C_h_19 length=50 units=ft
~ bus1=trip_node_684_C_3.1.2
~ bus2=trip_load_684_C_h_19.1.2 switch=n  phases=2 Linecode=2P_Code10

New Line.trip_line_684_C_h_20 length=50 units=ft
~ bus1=trip_node_684_C_3.1.2
~ bus2=trip_load_684_C_h_20.1.2 switch=n  phases=2 Linecode=2P_Code10

New Line.trip_line_684_C_h_21 length=50 units=ft
~ bus1=trip_node_684_C_3.1.2
~ bus2=trip_load_684_C_h_21.1.2 switch=n  phases=2 Linecode=2P_Code10

New Line.trip_line_684_C_h_22 length=50 units=ft
~ bus1=trip_node_684_C_3.1.2
~ bus2=trip_load_684_C_h_22.1.2 switch=n  phases=2 Linecode=2P_Code10

New Line.trip_line_684_C_h_23 length=50 units=ft
~ bus1=trip_node_684_C_3.1.2
~ bus2=trip_load_684_C_h_23.1.2 switch=n  phases=2 Linecode=2P_Code10

New Line.trip_line_684_C_h_24 length=50 units=ft
~ bus1=trip_node_684_C_3.1.2
~ bus2=trip_load_684_C_h_24.1.2 switch=n  phases=2 Linecode=2P_Code10

New Line.OL_684_C_xfmr_684_C_4 length=50 units=ft
~ bus1=meter_684_C.3
~ bus2=xfmr_meter_684_C_4.3 switch=n  phases=1 Linecode=1P_OH_Code3

New Line.trip_line_684_C_h_25 length=50 units=ft
~ bus1=trip_node_684_C_4.1.2
~ bus2=trip_load_684_C_h_25.1.2 switch=n  phases=2 Linecode=2P_Code10

New Line.trip_line_684_C_h_26 length=50 units=ft
~ bus1=trip_node_684_C_4.1.2
~ bus2=trip_load_684_C_h_26.1.2 switch=n  phases=2 Linecode=2P_Code10

New Line.trip_line_684_C_h_27 length=50 units=ft
~ bus1=trip_node_684_C_4.1.2
~ bus2=trip_load_684_C_h_27.1.2 switch=n  phases=2 Linecode=2P_Code10

New Line.trip_line_684_C_h_28 length=50 units=ft
~ bus1=trip_node_684_C_4.1.2
~ bus2=trip_load_684_C_h_28.1.2 switch=n  phases=2 Linecode=2P_Code10

New Line.trip_line_684_C_h_29 length=50 units=ft
~ bus1=trip_node_684_C_4.1.2
~ bus2=trip_load_684_C_h_29.1.2 switch=n  phases=2 Linecode=2P_Code10

New Line.trip_line_684_C_h_30 length=50 units=ft
~ bus1=trip_node_684_C_4.1.2
~ bus2=trip_load_684_C_h_30.1.2 switch=n  phases=2 Linecode=2P_Code10

New Line.trip_line_684_C_h_31 length=50 units=ft
~ bus1=trip_node_684_C_4.1.2
~ bus2=trip_load_684_C_h_31.1.2 switch=n  phases=2 Linecode=2P_Code10

New Line.trip_line_684_C_h_32 length=50 units=ft
~ bus1=trip_node_684_C_4.1.2
~ bus2=trip_load_684_C_h_32.1.2 switch=n  phases=2 Linecode=2P_Code10

New Line.OL_684_C_xfmr_684_C_5 length=50 units=ft
~ bus1=meter_684_C.3
~ bus2=xfmr_meter_684_C_5.3 switch=n  phases=1 Linecode=1P_OH_Code3

New Line.trip_line_684_C_h_33 length=50 units=ft
~ bus1=trip_node_684_C_5.1.2
~ bus2=trip_load_684_C_h_33.1.2 switch=n  phases=2 Linecode=2P_Code10

New Line.trip_line_684_C_h_34 length=50 units=ft
~ bus1=trip_node_684_C_5.1.2
~ bus2=trip_load_684_C_h_34.1.2 switch=n  phases=2 Linecode=2P_Code10

New Line.trip_line_684_C_h_35 length=50 units=ft
~ bus1=trip_node_684_C_5.1.2
~ bus2=trip_load_684_C_h_35.1.2 switch=n  phases=2 Linecode=2P_Code10

New Line.trip_line_684_C_h_36 length=50 units=ft
~ bus1=trip_node_684_C_5.1.2
~ bus2=trip_load_684_C_h_36.1.2 switch=n  phases=2 Linecode=2P_Code10

New Line.trip_line_684_C_h_37 length=50 units=ft
~ bus1=trip_node_684_C_5.1.2
~ bus2=trip_load_684_C_h_37.1.2 switch=n  phases=2 Linecode=2P_Code10

New Line.trip_line_684_C_h_38 length=50 units=ft
~ bus1=trip_node_684_C_5.1.2
~ bus2=trip_load_684_C_h_38.1.2 switch=n  phases=2 Linecode=2P_Code10

New Line.trip_line_684_C_h_39 length=50 units=ft
~ bus1=trip_node_684_C_5.1.2
~ bus2=trip_load_684_C_h_39.1.2 switch=n  phases=2 Linecode=2P_Code10

New Line.trip_line_684_C_h_40 length=50 units=ft
~ bus1=trip_node_684_C_5.1.2
~ bus2=trip_load_684_C_h_40.1.2 switch=n  phases=2 Linecode=2P_Code10

New Line.OL_684_A_xfmr_684_A_1 length=50 units=ft
~ bus1=meter_684_A.1
~ bus2=xfmr_meter_684_A_1.1 switch=n  phases=1 Linecode=1P_OH_Code8

New Line.trip_line_684_A_h_1 length=50 units=ft
~ bus1=trip_node_684_A_1.1.2
~ bus2=trip_load_684_A_h_1.1.2 switch=n  phases=2 Linecode=2P_Code10

New Line.trip_line_684_A_h_2 length=50 units=ft
~ bus1=trip_node_684_A_1.1.2
~ bus2=trip_load_684_A_h_2.1.2 switch=n  phases=2 Linecode=2P_Code10

New Line.trip_line_684_A_h_3 length=50 units=ft
~ bus1=trip_node_684_A_1.1.2
~ bus2=trip_load_684_A_h_3.1.2 switch=n  phases=2 Linecode=2P_Code10

New Line.trip_line_684_A_h_4 length=50 units=ft
~ bus1=trip_node_684_A_1.1.2
~ bus2=trip_load_684_A_h_4.1.2 switch=n  phases=2 Linecode=2P_Code10

New Line.trip_line_684_A_h_5 length=50 units=ft
~ bus1=trip_node_684_A_1.1.2
~ bus2=trip_load_684_A_h_5.1.2 switch=n  phases=2 Linecode=2P_Code10

New Line.trip_line_684_A_h_6 length=50 units=ft
~ bus1=trip_node_684_A_1.1.2
~ bus2=trip_load_684_A_h_6.1.2 switch=n  phases=2 Linecode=2P_Code10

New Line.trip_line_684_A_h_7 length=50 units=ft
~ bus1=trip_node_684_A_1.1.2
~ bus2=trip_load_684_A_h_7.1.2 switch=n  phases=2 Linecode=2P_Code10

New Line.trip_line_684_A_h_8 length=50 units=ft
~ bus1=trip_node_684_A_1.1.2
~ bus2=trip_load_684_A_h_8.1.2 switch=n  phases=2 Linecode=2P_Code10

New Line.OL_684_A_xfmr_684_A_2 length=50 units=ft
~ bus1=meter_684_A.1
~ bus2=xfmr_meter_684_A_2.1 switch=n  phases=1 Linecode=1P_OH_Code8

New Line.trip_line_684_A_h_9 length=50 units=ft
~ bus1=trip_node_684_A_2.1.2
~ bus2=trip_load_684_A_h_9.1.2 switch=n  phases=2 Linecode=2P_Code10

New Line.trip_line_684_A_h_10 length=50 units=ft
~ bus1=trip_node_684_A_2.1.2
~ bus2=trip_load_684_A_h_10.1.2 switch=n  phases=2 Linecode=2P_Code10

New Line.trip_line_684_A_h_11 length=50 units=ft
~ bus1=trip_node_684_A_2.1.2
~ bus2=trip_load_684_A_h_11.1.2 switch=n  phases=2 Linecode=2P_Code10

New Line.trip_line_684_A_h_12 length=50 units=ft
~ bus1=trip_node_684_A_2.1.2
~ bus2=trip_load_684_A_h_12.1.2 switch=n  phases=2 Linecode=2P_Code10

New Line.trip_line_684_A_h_13 length=50 units=ft
~ bus1=trip_node_684_A_2.1.2
~ bus2=trip_load_684_A_h_13.1.2 switch=n  phases=2 Linecode=2P_Code10

New Line.trip_line_684_A_h_14 length=50 units=ft
~ bus1=trip_node_684_A_2.1.2
~ bus2=trip_load_684_A_h_14.1.2 switch=n  phases=2 Linecode=2P_Code10

New Line.trip_line_684_A_h_15 length=50 units=ft
~ bus1=trip_node_684_A_2.1.2
~ bus2=trip_load_684_A_h_15.1.2 switch=n  phases=2 Linecode=2P_Code10

New Line.trip_line_684_A_h_16 length=50 units=ft
~ bus1=trip_node_684_A_2.1.2
~ bus2=trip_load_684_A_h_16.1.2 switch=n  phases=2 Linecode=2P_Code10

New Line.OL_684_A_xfmr_684_A_3 length=50 units=ft
~ bus1=meter_684_A.1
~ bus2=xfmr_meter_684_A_3.1 switch=n  phases=1 Linecode=1P_OH_Code8

New Line.trip_line_684_A_h_17 length=50 units=ft
~ bus1=trip_node_684_A_3.1.2
~ bus2=trip_load_684_A_h_17.1.2 switch=n  phases=2 Linecode=2P_Code10

New Line.trip_line_684_A_h_18 length=50 units=ft
~ bus1=trip_node_684_A_3.1.2
~ bus2=trip_load_684_A_h_18.1.2 switch=n  phases=2 Linecode=2P_Code10

New Line.trip_line_684_A_h_19 length=50 units=ft
~ bus1=trip_node_684_A_3.1.2
~ bus2=trip_load_684_A_h_19.1.2 switch=n  phases=2 Linecode=2P_Code10

New Line.trip_line_684_A_h_20 length=50 units=ft
~ bus1=trip_node_684_A_3.1.2
~ bus2=trip_load_684_A_h_20.1.2 switch=n  phases=2 Linecode=2P_Code10

New Line.trip_line_684_A_h_21 length=50 units=ft
~ bus1=trip_node_684_A_3.1.2
~ bus2=trip_load_684_A_h_21.1.2 switch=n  phases=2 Linecode=2P_Code10

New Line.trip_line_684_A_h_22 length=50 units=ft
~ bus1=trip_node_684_A_3.1.2
~ bus2=trip_load_684_A_h_22.1.2 switch=n  phases=2 Linecode=2P_Code10

New Line.trip_line_684_A_h_23 length=50 units=ft
~ bus1=trip_node_684_A_3.1.2
~ bus2=trip_load_684_A_h_23.1.2 switch=n  phases=2 Linecode=2P_Code10

New Line.trip_line_684_A_h_24 length=50 units=ft
~ bus1=trip_node_684_A_3.1.2
~ bus2=trip_load_684_A_h_24.1.2 switch=n  phases=2 Linecode=2P_Code10

New Line.OL_684_A_xfmr_684_A_4 length=50 units=ft
~ bus1=meter_684_A.1
~ bus2=xfmr_meter_684_A_4.1 switch=n  phases=1 Linecode=1P_OH_Code8

New Line.trip_line_684_A_h_25 length=50 units=ft
~ bus1=trip_node_684_A_4.1.2
~ bus2=trip_load_684_A_h_25.1.2 switch=n  phases=2 Linecode=2P_Code10

New Line.trip_line_684_A_h_26 length=50 units=ft
~ bus1=trip_node_684_A_4.1.2
~ bus2=trip_load_684_A_h_26.1.2 switch=n  phases=2 Linecode=2P_Code10

New Line.trip_line_684_A_h_27 length=50 units=ft
~ bus1=trip_node_684_A_4.1.2
~ bus2=trip_load_684_A_h_27.1.2 switch=n  phases=2 Linecode=2P_Code10

New Line.trip_line_684_A_h_28 length=50 units=ft
~ bus1=trip_node_684_A_4.1.2
~ bus2=trip_load_684_A_h_28.1.2 switch=n  phases=2 Linecode=2P_Code10

New Line.trip_line_684_A_h_29 length=50 units=ft
~ bus1=trip_node_684_A_4.1.2
~ bus2=trip_load_684_A_h_29.1.2 switch=n  phases=2 Linecode=2P_Code10

New Line.trip_line_684_A_h_30 length=50 units=ft
~ bus1=trip_node_684_A_4.1.2
~ bus2=trip_load_684_A_h_30.1.2 switch=n  phases=2 Linecode=2P_Code10

New Line.trip_line_684_A_h_31 length=50 units=ft
~ bus1=trip_node_684_A_4.1.2
~ bus2=trip_load_684_A_h_31.1.2 switch=n  phases=2 Linecode=2P_Code10

New Line.trip_line_684_A_h_32 length=50 units=ft
~ bus1=trip_node_684_A_4.1.2
~ bus2=trip_load_684_A_h_32.1.2 switch=n  phases=2 Linecode=2P_Code10

New Line.OL_684_A_xfmr_684_A_5 length=50 units=ft
~ bus1=meter_684_A.1
~ bus2=xfmr_meter_684_A_5.1 switch=n  phases=1 Linecode=1P_OH_Code8

New Line.trip_line_684_A_h_33 length=50 units=ft
~ bus1=trip_node_684_A_5.1.2
~ bus2=trip_load_684_A_h_33.1.2 switch=n  phases=2 Linecode=2P_Code10

New Line.trip_line_684_A_h_34 length=50 units=ft
~ bus1=trip_node_684_A_5.1.2
~ bus2=trip_load_684_A_h_34.1.2 switch=n  phases=2 Linecode=2P_Code10

New Line.trip_line_684_A_h_35 length=50 units=ft
~ bus1=trip_node_684_A_5.1.2
~ bus2=trip_load_684_A_h_35.1.2 switch=n  phases=2 Linecode=2P_Code10

New Line.trip_line_684_A_h_36 length=50 units=ft
~ bus1=trip_node_684_A_5.1.2
~ bus2=trip_load_684_A_h_36.1.2 switch=n  phases=2 Linecode=2P_Code10

New Line.trip_line_684_A_h_37 length=50 units=ft
~ bus1=trip_node_684_A_5.1.2
~ bus2=trip_load_684_A_h_37.1.2 switch=n  phases=2 Linecode=2P_Code10

New Line.trip_line_684_A_h_38 length=50 units=ft
~ bus1=trip_node_684_A_5.1.2
~ bus2=trip_load_684_A_h_38.1.2 switch=n  phases=2 Linecode=2P_Code10

New Line.trip_line_684_A_h_39 length=50 units=ft
~ bus1=trip_node_684_A_5.1.2
~ bus2=trip_load_684_A_h_39.1.2 switch=n  phases=2 Linecode=2P_Code10

New Line.trip_line_684_A_h_40 length=50 units=ft
~ bus1=trip_node_684_A_5.1.2
~ bus2=trip_load_684_A_h_40.1.2 switch=n  phases=2 Linecode=2P_Code10

New Line.OL_645_B_xfmr_645_B_1 length=50 units=ft
~ bus1=meter_645_B.2
~ bus2=xfmr_meter_645_B_1.2 switch=n  phases=1 Linecode=1P_OH_Code9

New Line.trip_line_645_B_h_1 length=50 units=ft
~ bus1=trip_node_645_B_1.1.2
~ bus2=trip_load_645_B_h_1.1.2 switch=n  phases=2 Linecode=2P_Code10

New Line.trip_line_645_B_h_2 length=50 units=ft
~ bus1=trip_node_645_B_1.1.2
~ bus2=trip_load_645_B_h_2.1.2 switch=n  phases=2 Linecode=2P_Code10

New Line.trip_line_645_B_h_3 length=50 units=ft
~ bus1=trip_node_645_B_1.1.2
~ bus2=trip_load_645_B_h_3.1.2 switch=n  phases=2 Linecode=2P_Code10

New Line.trip_line_645_B_h_4 length=50 units=ft
~ bus1=trip_node_645_B_1.1.2
~ bus2=trip_load_645_B_h_4.1.2 switch=n  phases=2 Linecode=2P_Code10

New Line.trip_line_645_B_h_5 length=50 units=ft
~ bus1=trip_node_645_B_1.1.2
~ bus2=trip_load_645_B_h_5.1.2 switch=n  phases=2 Linecode=2P_Code10

New Line.trip_line_645_B_h_6 length=50 units=ft
~ bus1=trip_node_645_B_1.1.2
~ bus2=trip_load_645_B_h_6.1.2 switch=n  phases=2 Linecode=2P_Code10

New Line.trip_line_645_B_h_7 length=50 units=ft
~ bus1=trip_node_645_B_1.1.2
~ bus2=trip_load_645_B_h_7.1.2 switch=n  phases=2 Linecode=2P_Code10

New Line.trip_line_645_B_h_8 length=50 units=ft
~ bus1=trip_node_645_B_1.1.2
~ bus2=trip_load_645_B_h_8.1.2 switch=n  phases=2 Linecode=2P_Code10

New Line.OL_645_B_xfmr_645_B_2 length=50 units=ft
~ bus1=meter_645_B.2
~ bus2=xfmr_meter_645_B_2.2 switch=n  phases=1 Linecode=1P_OH_Code9

New Line.trip_line_645_B_h_9 length=50 units=ft
~ bus1=trip_node_645_B_2.1.2
~ bus2=trip_load_645_B_h_9.1.2 switch=n  phases=2 Linecode=2P_Code10

New Line.trip_line_645_B_h_10 length=50 units=ft
~ bus1=trip_node_645_B_2.1.2
~ bus2=trip_load_645_B_h_10.1.2 switch=n  phases=2 Linecode=2P_Code10

New Line.trip_line_645_B_h_11 length=50 units=ft
~ bus1=trip_node_645_B_2.1.2
~ bus2=trip_load_645_B_h_11.1.2 switch=n  phases=2 Linecode=2P_Code10

New Line.trip_line_645_B_h_12 length=50 units=ft
~ bus1=trip_node_645_B_2.1.2
~ bus2=trip_load_645_B_h_12.1.2 switch=n  phases=2 Linecode=2P_Code10

New Line.trip_line_645_B_h_13 length=50 units=ft
~ bus1=trip_node_645_B_2.1.2
~ bus2=trip_load_645_B_h_13.1.2 switch=n  phases=2 Linecode=2P_Code10

New Line.trip_line_645_B_h_14 length=50 units=ft
~ bus1=trip_node_645_B_2.1.2
~ bus2=trip_load_645_B_h_14.1.2 switch=n  phases=2 Linecode=2P_Code10

New Line.trip_line_645_B_h_15 length=50 units=ft
~ bus1=trip_node_645_B_2.1.2
~ bus2=trip_load_645_B_h_15.1.2 switch=n  phases=2 Linecode=2P_Code10

New Line.trip_line_645_B_h_16 length=50 units=ft
~ bus1=trip_node_645_B_2.1.2
~ bus2=trip_load_645_B_h_16.1.2 switch=n  phases=2 Linecode=2P_Code10

New Line.OL_645_B_xfmr_645_B_3 length=50 units=ft
~ bus1=meter_645_B.2
~ bus2=xfmr_meter_645_B_3.2 switch=n  phases=1 Linecode=1P_OH_Code9

New Line.trip_line_645_B_h_17 length=50 units=ft
~ bus1=trip_node_645_B_3.1.2
~ bus2=trip_load_645_B_h_17.1.2 switch=n  phases=2 Linecode=2P_Code10

New Line.trip_line_645_B_h_18 length=50 units=ft
~ bus1=trip_node_645_B_3.1.2
~ bus2=trip_load_645_B_h_18.1.2 switch=n  phases=2 Linecode=2P_Code10

New Line.trip_line_645_B_h_19 length=50 units=ft
~ bus1=trip_node_645_B_3.1.2
~ bus2=trip_load_645_B_h_19.1.2 switch=n  phases=2 Linecode=2P_Code10

New Line.trip_line_645_B_h_20 length=50 units=ft
~ bus1=trip_node_645_B_3.1.2
~ bus2=trip_load_645_B_h_20.1.2 switch=n  phases=2 Linecode=2P_Code10

New Line.trip_line_645_B_h_21 length=50 units=ft
~ bus1=trip_node_645_B_3.1.2
~ bus2=trip_load_645_B_h_21.1.2 switch=n  phases=2 Linecode=2P_Code10

New Line.trip_line_645_B_h_22 length=50 units=ft
~ bus1=trip_node_645_B_3.1.2
~ bus2=trip_load_645_B_h_22.1.2 switch=n  phases=2 Linecode=2P_Code10

New Line.trip_line_645_B_h_23 length=50 units=ft
~ bus1=trip_node_645_B_3.1.2
~ bus2=trip_load_645_B_h_23.1.2 switch=n  phases=2 Linecode=2P_Code10

New Line.trip_line_645_B_h_24 length=50 units=ft
~ bus1=trip_node_645_B_3.1.2
~ bus2=trip_load_645_B_h_24.1.2 switch=n  phases=2 Linecode=2P_Code10

New Line.OL_645_B_xfmr_645_B_4 length=50 units=ft
~ bus1=meter_645_B.2
~ bus2=xfmr_meter_645_B_4.2 switch=n  phases=1 Linecode=1P_OH_Code9

New Line.trip_line_645_B_h_25 length=50 units=ft
~ bus1=trip_node_645_B_4.1.2
~ bus2=trip_load_645_B_h_25.1.2 switch=n  phases=2 Linecode=2P_Code10

New Line.trip_line_645_B_h_26 length=50 units=ft
~ bus1=trip_node_645_B_4.1.2
~ bus2=trip_load_645_B_h_26.1.2 switch=n  phases=2 Linecode=2P_Code10

New Line.trip_line_645_B_h_27 length=50 units=ft
~ bus1=trip_node_645_B_4.1.2
~ bus2=trip_load_645_B_h_27.1.2 switch=n  phases=2 Linecode=2P_Code10

New Line.trip_line_645_B_h_28 length=50 units=ft
~ bus1=trip_node_645_B_4.1.2
~ bus2=trip_load_645_B_h_28.1.2 switch=n  phases=2 Linecode=2P_Code10

New Line.trip_line_645_B_h_29 length=50 units=ft
~ bus1=trip_node_645_B_4.1.2
~ bus2=trip_load_645_B_h_29.1.2 switch=n  phases=2 Linecode=2P_Code10

New Line.trip_line_645_B_h_30 length=50 units=ft
~ bus1=trip_node_645_B_4.1.2
~ bus2=trip_load_645_B_h_30.1.2 switch=n  phases=2 Linecode=2P_Code10

New Line.trip_line_645_B_h_31 length=50 units=ft
~ bus1=trip_node_645_B_4.1.2
~ bus2=trip_load_645_B_h_31.1.2 switch=n  phases=2 Linecode=2P_Code10

New Line.trip_line_645_B_h_32 length=50 units=ft
~ bus1=trip_node_645_B_4.1.2
~ bus2=trip_load_645_B_h_32.1.2 switch=n  phases=2 Linecode=2P_Code10

New Line.OL_645_B_xfmr_645_B_5 length=50 units=ft
~ bus1=meter_645_B.2
~ bus2=xfmr_meter_645_B_5.2 switch=n  phases=1 Linecode=1P_OH_Code9

New Line.trip_line_645_B_h_33 length=50 units=ft
~ bus1=trip_node_645_B_5.1.2
~ bus2=trip_load_645_B_h_33.1.2 switch=n  phases=2 Linecode=2P_Code10

New Line.trip_line_645_B_h_34 length=50 units=ft
~ bus1=trip_node_645_B_5.1.2
~ bus2=trip_load_645_B_h_34.1.2 switch=n  phases=2 Linecode=2P_Code10

New Line.trip_line_645_B_h_35 length=50 units=ft
~ bus1=trip_node_645_B_5.1.2
~ bus2=trip_load_645_B_h_35.1.2 switch=n  phases=2 Linecode=2P_Code10

New Line.trip_line_645_B_h_36 length=50 units=ft
~ bus1=trip_node_645_B_5.1.2
~ bus2=trip_load_645_B_h_36.1.2 switch=n  phases=2 Linecode=2P_Code10

New Line.trip_line_645_B_h_37 length=50 units=ft
~ bus1=trip_node_645_B_5.1.2
~ bus2=trip_load_645_B_h_37.1.2 switch=n  phases=2 Linecode=2P_Code10

New Line.trip_line_645_B_h_38 length=50 units=ft
~ bus1=trip_node_645_B_5.1.2
~ bus2=trip_load_645_B_h_38.1.2 switch=n  phases=2 Linecode=2P_Code10

New Line.trip_line_645_B_h_39 length=50 units=ft
~ bus1=trip_node_645_B_5.1.2
~ bus2=trip_load_645_B_h_39.1.2 switch=n  phases=2 Linecode=2P_Code10

New Line.trip_line_645_B_h_40 length=50 units=ft
~ bus1=trip_node_645_B_5.1.2
~ bus2=trip_load_645_B_h_40.1.2 switch=n  phases=2 Linecode=2P_Code10

New Line.OL_645_C_xfmr_645_C_1 length=50 units=ft
~ bus1=meter_645_C.3
~ bus2=xfmr_meter_645_C_1.3 switch=n  phases=1 Linecode=1P_OH_Code3

New Line.trip_line_645_C_h_1 length=50 units=ft
~ bus1=trip_node_645_C_1.1.2
~ bus2=trip_load_645_C_h_1.1.2 switch=n  phases=2 Linecode=2P_Code10

New Line.trip_line_645_C_h_2 length=50 units=ft
~ bus1=trip_node_645_C_1.1.2
~ bus2=trip_load_645_C_h_2.1.2 switch=n  phases=2 Linecode=2P_Code10

New Line.trip_line_645_C_h_3 length=50 units=ft
~ bus1=trip_node_645_C_1.1.2
~ bus2=trip_load_645_C_h_3.1.2 switch=n  phases=2 Linecode=2P_Code10

New Line.trip_line_645_C_h_4 length=50 units=ft
~ bus1=trip_node_645_C_1.1.2
~ bus2=trip_load_645_C_h_4.1.2 switch=n  phases=2 Linecode=2P_Code10

New Line.trip_line_645_C_h_5 length=50 units=ft
~ bus1=trip_node_645_C_1.1.2
~ bus2=trip_load_645_C_h_5.1.2 switch=n  phases=2 Linecode=2P_Code10

New Line.trip_line_645_C_h_6 length=50 units=ft
~ bus1=trip_node_645_C_1.1.2
~ bus2=trip_load_645_C_h_6.1.2 switch=n  phases=2 Linecode=2P_Code10

New Line.trip_line_645_C_h_7 length=50 units=ft
~ bus1=trip_node_645_C_1.1.2
~ bus2=trip_load_645_C_h_7.1.2 switch=n  phases=2 Linecode=2P_Code10

New Line.trip_line_645_C_h_8 length=50 units=ft
~ bus1=trip_node_645_C_1.1.2
~ bus2=trip_load_645_C_h_8.1.2 switch=n  phases=2 Linecode=2P_Code10

New Line.OL_645_C_xfmr_645_C_2 length=50 units=ft
~ bus1=meter_645_C.3
~ bus2=xfmr_meter_645_C_2.3 switch=n  phases=1 Linecode=1P_OH_Code3

New Line.trip_line_645_C_h_9 length=50 units=ft
~ bus1=trip_node_645_C_2.1.2
~ bus2=trip_load_645_C_h_9.1.2 switch=n  phases=2 Linecode=2P_Code10

New Line.trip_line_645_C_h_10 length=50 units=ft
~ bus1=trip_node_645_C_2.1.2
~ bus2=trip_load_645_C_h_10.1.2 switch=n  phases=2 Linecode=2P_Code10

New Line.trip_line_645_C_h_11 length=50 units=ft
~ bus1=trip_node_645_C_2.1.2
~ bus2=trip_load_645_C_h_11.1.2 switch=n  phases=2 Linecode=2P_Code10

New Line.trip_line_645_C_h_12 length=50 units=ft
~ bus1=trip_node_645_C_2.1.2
~ bus2=trip_load_645_C_h_12.1.2 switch=n  phases=2 Linecode=2P_Code10

New Line.trip_line_645_C_h_13 length=50 units=ft
~ bus1=trip_node_645_C_2.1.2
~ bus2=trip_load_645_C_h_13.1.2 switch=n  phases=2 Linecode=2P_Code10

New Line.trip_line_645_C_h_14 length=50 units=ft
~ bus1=trip_node_645_C_2.1.2
~ bus2=trip_load_645_C_h_14.1.2 switch=n  phases=2 Linecode=2P_Code10

New Line.trip_line_645_C_h_15 length=50 units=ft
~ bus1=trip_node_645_C_2.1.2
~ bus2=trip_load_645_C_h_15.1.2 switch=n  phases=2 Linecode=2P_Code10

New Line.trip_line_645_C_h_16 length=50 units=ft
~ bus1=trip_node_645_C_2.1.2
~ bus2=trip_load_645_C_h_16.1.2 switch=n  phases=2 Linecode=2P_Code10

New Line.OL_645_C_xfmr_645_C_3 length=50 units=ft
~ bus1=meter_645_C.3
~ bus2=xfmr_meter_645_C_3.3 switch=n  phases=1 Linecode=1P_OH_Code3

New Line.trip_line_645_C_h_17 length=50 units=ft
~ bus1=trip_node_645_C_3.1.2
~ bus2=trip_load_645_C_h_17.1.2 switch=n  phases=2 Linecode=2P_Code10

New Line.trip_line_645_C_h_18 length=50 units=ft
~ bus1=trip_node_645_C_3.1.2
~ bus2=trip_load_645_C_h_18.1.2 switch=n  phases=2 Linecode=2P_Code10

New Line.trip_line_645_C_h_19 length=50 units=ft
~ bus1=trip_node_645_C_3.1.2
~ bus2=trip_load_645_C_h_19.1.2 switch=n  phases=2 Linecode=2P_Code10

New Line.trip_line_645_C_h_20 length=50 units=ft
~ bus1=trip_node_645_C_3.1.2
~ bus2=trip_load_645_C_h_20.1.2 switch=n  phases=2 Linecode=2P_Code10

New Line.trip_line_645_C_h_21 length=50 units=ft
~ bus1=trip_node_645_C_3.1.2
~ bus2=trip_load_645_C_h_21.1.2 switch=n  phases=2 Linecode=2P_Code10

New Line.trip_line_645_C_h_22 length=50 units=ft
~ bus1=trip_node_645_C_3.1.2
~ bus2=trip_load_645_C_h_22.1.2 switch=n  phases=2 Linecode=2P_Code10

New Line.trip_line_645_C_h_23 length=50 units=ft
~ bus1=trip_node_645_C_3.1.2
~ bus2=trip_load_645_C_h_23.1.2 switch=n  phases=2 Linecode=2P_Code10

New Line.trip_line_645_C_h_24 length=50 units=ft
~ bus1=trip_node_645_C_3.1.2
~ bus2=trip_load_645_C_h_24.1.2 switch=n  phases=2 Linecode=2P_Code10

New Line.OL_645_C_xfmr_645_C_4 length=50 units=ft
~ bus1=meter_645_C.3
~ bus2=xfmr_meter_645_C_4.3 switch=n  phases=1 Linecode=1P_OH_Code3

New Line.trip_line_645_C_h_25 length=50 units=ft
~ bus1=trip_node_645_C_4.1.2
~ bus2=trip_load_645_C_h_25.1.2 switch=n  phases=2 Linecode=2P_Code10

New Line.trip_line_645_C_h_26 length=50 units=ft
~ bus1=trip_node_645_C_4.1.2
~ bus2=trip_load_645_C_h_26.1.2 switch=n  phases=2 Linecode=2P_Code10

New Line.trip_line_645_C_h_27 length=50 units=ft
~ bus1=trip_node_645_C_4.1.2
~ bus2=trip_load_645_C_h_27.1.2 switch=n  phases=2 Linecode=2P_Code10

New Line.trip_line_645_C_h_28 length=50 units=ft
~ bus1=trip_node_645_C_4.1.2
~ bus2=trip_load_645_C_h_28.1.2 switch=n  phases=2 Linecode=2P_Code10

New Line.trip_line_645_C_h_29 length=50 units=ft
~ bus1=trip_node_645_C_4.1.2
~ bus2=trip_load_645_C_h_29.1.2 switch=n  phases=2 Linecode=2P_Code10

New Line.trip_line_645_C_h_30 length=50 units=ft
~ bus1=trip_node_645_C_4.1.2
~ bus2=trip_load_645_C_h_30.1.2 switch=n  phases=2 Linecode=2P_Code10

New Line.trip_line_645_C_h_31 length=50 units=ft
~ bus1=trip_node_645_C_4.1.2
~ bus2=trip_load_645_C_h_31.1.2 switch=n  phases=2 Linecode=2P_Code10

New Line.trip_line_645_C_h_32 length=50 units=ft
~ bus1=trip_node_645_C_4.1.2
~ bus2=trip_load_645_C_h_32.1.2 switch=n  phases=2 Linecode=2P_Code10

New Line.OL_645_C_xfmr_645_C_5 length=50 units=ft
~ bus1=meter_645_C.3
~ bus2=xfmr_meter_645_C_5.3 switch=n  phases=1 Linecode=1P_OH_Code3

New Line.trip_line_645_C_h_33 length=50 units=ft
~ bus1=trip_node_645_C_5.1.2
~ bus2=trip_load_645_C_h_33.1.2 switch=n  phases=2 Linecode=2P_Code10

New Line.trip_line_645_C_h_34 length=50 units=ft
~ bus1=trip_node_645_C_5.1.2
~ bus2=trip_load_645_C_h_34.1.2 switch=n  phases=2 Linecode=2P_Code10

New Line.trip_line_645_C_h_35 length=50 units=ft
~ bus1=trip_node_645_C_5.1.2
~ bus2=trip_load_645_C_h_35.1.2 switch=n  phases=2 Linecode=2P_Code10

New Line.trip_line_645_C_h_36 length=50 units=ft
~ bus1=trip_node_645_C_5.1.2
~ bus2=trip_load_645_C_h_36.1.2 switch=n  phases=2 Linecode=2P_Code10

New Line.trip_line_645_C_h_37 length=50 units=ft
~ bus1=trip_node_645_C_5.1.2
~ bus2=trip_load_645_C_h_37.1.2 switch=n  phases=2 Linecode=2P_Code10

New Line.trip_line_645_C_h_38 length=50 units=ft
~ bus1=trip_node_645_C_5.1.2
~ bus2=trip_load_645_C_h_38.1.2 switch=n  phases=2 Linecode=2P_Code10

New Line.trip_line_645_C_h_39 length=50 units=ft
~ bus1=trip_node_645_C_5.1.2
~ bus2=trip_load_645_C_h_39.1.2 switch=n  phases=2 Linecode=2P_Code10

New Line.trip_line_645_C_h_40 length=50 units=ft
~ bus1=trip_node_645_C_5.1.2
~ bus2=trip_load_645_C_h_40.1.2 switch=n  phases=2 Linecode=2P_Code10

New Line.OL_633_A_xfmr_633_A_1 length=50 units=ft
~ bus1=meter_633_A.1
~ bus2=xfmr_meter_633_A_1.1 switch=n  phases=1 Linecode=1P_OH_Code8

New Line.trip_line_633_A_h_1 length=50 units=ft
~ bus1=trip_node_633_A_1.1.2
~ bus2=trip_load_633_A_h_1.1.2 switch=n  phases=2 Linecode=2P_Code10

New Line.trip_line_633_A_h_2 length=50 units=ft
~ bus1=trip_node_633_A_1.1.2
~ bus2=trip_load_633_A_h_2.1.2 switch=n  phases=2 Linecode=2P_Code10

New Line.trip_line_633_A_h_3 length=50 units=ft
~ bus1=trip_node_633_A_1.1.2
~ bus2=trip_load_633_A_h_3.1.2 switch=n  phases=2 Linecode=2P_Code10

New Line.trip_line_633_A_h_4 length=50 units=ft
~ bus1=trip_node_633_A_1.1.2
~ bus2=trip_load_633_A_h_4.1.2 switch=n  phases=2 Linecode=2P_Code10

New Line.trip_line_633_A_h_5 length=50 units=ft
~ bus1=trip_node_633_A_1.1.2
~ bus2=trip_load_633_A_h_5.1.2 switch=n  phases=2 Linecode=2P_Code10

New Line.trip_line_633_A_h_6 length=50 units=ft
~ bus1=trip_node_633_A_1.1.2
~ bus2=trip_load_633_A_h_6.1.2 switch=n  phases=2 Linecode=2P_Code10

New Line.trip_line_633_A_h_7 length=50 units=ft
~ bus1=trip_node_633_A_1.1.2
~ bus2=trip_load_633_A_h_7.1.2 switch=n  phases=2 Linecode=2P_Code10

New Line.trip_line_633_A_h_8 length=50 units=ft
~ bus1=trip_node_633_A_1.1.2
~ bus2=trip_load_633_A_h_8.1.2 switch=n  phases=2 Linecode=2P_Code10

New Line.OL_633_A_xfmr_633_A_2 length=50 units=ft
~ bus1=meter_633_A.1
~ bus2=xfmr_meter_633_A_2.1 switch=n  phases=1 Linecode=1P_OH_Code8

New Line.trip_line_633_A_h_9 length=50 units=ft
~ bus1=trip_node_633_A_2.1.2
~ bus2=trip_load_633_A_h_9.1.2 switch=n  phases=2 Linecode=2P_Code10

New Line.trip_line_633_A_h_10 length=50 units=ft
~ bus1=trip_node_633_A_2.1.2
~ bus2=trip_load_633_A_h_10.1.2 switch=n  phases=2 Linecode=2P_Code10

New Line.trip_line_633_A_h_11 length=50 units=ft
~ bus1=trip_node_633_A_2.1.2
~ bus2=trip_load_633_A_h_11.1.2 switch=n  phases=2 Linecode=2P_Code10

New Line.trip_line_633_A_h_12 length=50 units=ft
~ bus1=trip_node_633_A_2.1.2
~ bus2=trip_load_633_A_h_12.1.2 switch=n  phases=2 Linecode=2P_Code10

New Line.trip_line_633_A_h_13 length=50 units=ft
~ bus1=trip_node_633_A_2.1.2
~ bus2=trip_load_633_A_h_13.1.2 switch=n  phases=2 Linecode=2P_Code10

New Line.trip_line_633_A_h_14 length=50 units=ft
~ bus1=trip_node_633_A_2.1.2
~ bus2=trip_load_633_A_h_14.1.2 switch=n  phases=2 Linecode=2P_Code10

New Line.trip_line_633_A_h_15 length=50 units=ft
~ bus1=trip_node_633_A_2.1.2
~ bus2=trip_load_633_A_h_15.1.2 switch=n  phases=2 Linecode=2P_Code10

New Line.trip_line_633_A_h_16 length=50 units=ft
~ bus1=trip_node_633_A_2.1.2
~ bus2=trip_load_633_A_h_16.1.2 switch=n  phases=2 Linecode=2P_Code10

New Line.OL_633_A_xfmr_633_A_3 length=50 units=ft
~ bus1=meter_633_A.1
~ bus2=xfmr_meter_633_A_3.1 switch=n  phases=1 Linecode=1P_OH_Code8

New Line.trip_line_633_A_h_17 length=50 units=ft
~ bus1=trip_node_633_A_3.1.2
~ bus2=trip_load_633_A_h_17.1.2 switch=n  phases=2 Linecode=2P_Code10

New Line.trip_line_633_A_h_18 length=50 units=ft
~ bus1=trip_node_633_A_3.1.2
~ bus2=trip_load_633_A_h_18.1.2 switch=n  phases=2 Linecode=2P_Code10

New Line.trip_line_633_A_h_19 length=50 units=ft
~ bus1=trip_node_633_A_3.1.2
~ bus2=trip_load_633_A_h_19.1.2 switch=n  phases=2 Linecode=2P_Code10

New Line.trip_line_633_A_h_20 length=50 units=ft
~ bus1=trip_node_633_A_3.1.2
~ bus2=trip_load_633_A_h_20.1.2 switch=n  phases=2 Linecode=2P_Code10

New Line.trip_line_633_A_h_21 length=50 units=ft
~ bus1=trip_node_633_A_3.1.2
~ bus2=trip_load_633_A_h_21.1.2 switch=n  phases=2 Linecode=2P_Code10

New Line.trip_line_633_A_h_22 length=50 units=ft
~ bus1=trip_node_633_A_3.1.2
~ bus2=trip_load_633_A_h_22.1.2 switch=n  phases=2 Linecode=2P_Code10

New Line.trip_line_633_A_h_23 length=50 units=ft
~ bus1=trip_node_633_A_3.1.2
~ bus2=trip_load_633_A_h_23.1.2 switch=n  phases=2 Linecode=2P_Code10

New Line.trip_line_633_A_h_24 length=50 units=ft
~ bus1=trip_node_633_A_3.1.2
~ bus2=trip_load_633_A_h_24.1.2 switch=n  phases=2 Linecode=2P_Code10

New Line.OL_633_A_xfmr_633_A_4 length=50 units=ft
~ bus1=meter_633_A.1
~ bus2=xfmr_meter_633_A_4.1 switch=n  phases=1 Linecode=1P_OH_Code8

New Line.trip_line_633_A_h_25 length=50 units=ft
~ bus1=trip_node_633_A_4.1.2
~ bus2=trip_load_633_A_h_25.1.2 switch=n  phases=2 Linecode=2P_Code10

New Line.trip_line_633_A_h_26 length=50 units=ft
~ bus1=trip_node_633_A_4.1.2
~ bus2=trip_load_633_A_h_26.1.2 switch=n  phases=2 Linecode=2P_Code10

New Line.trip_line_633_A_h_27 length=50 units=ft
~ bus1=trip_node_633_A_4.1.2
~ bus2=trip_load_633_A_h_27.1.2 switch=n  phases=2 Linecode=2P_Code10

New Line.trip_line_633_A_h_28 length=50 units=ft
~ bus1=trip_node_633_A_4.1.2
~ bus2=trip_load_633_A_h_28.1.2 switch=n  phases=2 Linecode=2P_Code10

New Line.trip_line_633_A_h_29 length=50 units=ft
~ bus1=trip_node_633_A_4.1.2
~ bus2=trip_load_633_A_h_29.1.2 switch=n  phases=2 Linecode=2P_Code10

New Line.trip_line_633_A_h_30 length=50 units=ft
~ bus1=trip_node_633_A_4.1.2
~ bus2=trip_load_633_A_h_30.1.2 switch=n  phases=2 Linecode=2P_Code10

New Line.trip_line_633_A_h_31 length=50 units=ft
~ bus1=trip_node_633_A_4.1.2
~ bus2=trip_load_633_A_h_31.1.2 switch=n  phases=2 Linecode=2P_Code10

New Line.trip_line_633_A_h_32 length=50 units=ft
~ bus1=trip_node_633_A_4.1.2
~ bus2=trip_load_633_A_h_32.1.2 switch=n  phases=2 Linecode=2P_Code10

New Line.OL_633_A_xfmr_633_A_5 length=50 units=ft
~ bus1=meter_633_A.1
~ bus2=xfmr_meter_633_A_5.1 switch=n  phases=1 Linecode=1P_OH_Code8

New Line.trip_line_633_A_h_33 length=50 units=ft
~ bus1=trip_node_633_A_5.1.2
~ bus2=trip_load_633_A_h_33.1.2 switch=n  phases=2 Linecode=2P_Code10

New Line.trip_line_633_A_h_34 length=50 units=ft
~ bus1=trip_node_633_A_5.1.2
~ bus2=trip_load_633_A_h_34.1.2 switch=n  phases=2 Linecode=2P_Code10

New Line.trip_line_633_A_h_35 length=50 units=ft
~ bus1=trip_node_633_A_5.1.2
~ bus2=trip_load_633_A_h_35.1.2 switch=n  phases=2 Linecode=2P_Code10

New Line.trip_line_633_A_h_36 length=50 units=ft
~ bus1=trip_node_633_A_5.1.2
~ bus2=trip_load_633_A_h_36.1.2 switch=n  phases=2 Linecode=2P_Code10

New Line.trip_line_633_A_h_37 length=50 units=ft
~ bus1=trip_node_633_A_5.1.2
~ bus2=trip_load_633_A_h_37.1.2 switch=n  phases=2 Linecode=2P_Code10

New Line.trip_line_633_A_h_38 length=50 units=ft
~ bus1=trip_node_633_A_5.1.2
~ bus2=trip_load_633_A_h_38.1.2 switch=n  phases=2 Linecode=2P_Code10

New Line.trip_line_633_A_h_39 length=50 units=ft
~ bus1=trip_node_633_A_5.1.2
~ bus2=trip_load_633_A_h_39.1.2 switch=n  phases=2 Linecode=2P_Code10

New Line.trip_line_633_A_h_40 length=50 units=ft
~ bus1=trip_node_633_A_5.1.2
~ bus2=trip_load_633_A_h_40.1.2 switch=n  phases=2 Linecode=2P_Code10

New Line.OL_633_B_xfmr_633_B_1 length=50 units=ft
~ bus1=meter_633_B.2
~ bus2=xfmr_meter_633_B_1.2 switch=n  phases=1 Linecode=1P_OH_Code9

New Line.trip_line_633_B_h_1 length=50 units=ft
~ bus1=trip_node_633_B_1.1.2
~ bus2=trip_load_633_B_h_1.1.2 switch=n  phases=2 Linecode=2P_Code10

New Line.trip_line_633_B_h_2 length=50 units=ft
~ bus1=trip_node_633_B_1.1.2
~ bus2=trip_load_633_B_h_2.1.2 switch=n  phases=2 Linecode=2P_Code10

New Line.trip_line_633_B_h_3 length=50 units=ft
~ bus1=trip_node_633_B_1.1.2
~ bus2=trip_load_633_B_h_3.1.2 switch=n  phases=2 Linecode=2P_Code10

New Line.trip_line_633_B_h_4 length=50 units=ft
~ bus1=trip_node_633_B_1.1.2
~ bus2=trip_load_633_B_h_4.1.2 switch=n  phases=2 Linecode=2P_Code10

New Line.trip_line_633_B_h_5 length=50 units=ft
~ bus1=trip_node_633_B_1.1.2
~ bus2=trip_load_633_B_h_5.1.2 switch=n  phases=2 Linecode=2P_Code10

New Line.trip_line_633_B_h_6 length=50 units=ft
~ bus1=trip_node_633_B_1.1.2
~ bus2=trip_load_633_B_h_6.1.2 switch=n  phases=2 Linecode=2P_Code10

New Line.trip_line_633_B_h_7 length=50 units=ft
~ bus1=trip_node_633_B_1.1.2
~ bus2=trip_load_633_B_h_7.1.2 switch=n  phases=2 Linecode=2P_Code10

New Line.trip_line_633_B_h_8 length=50 units=ft
~ bus1=trip_node_633_B_1.1.2
~ bus2=trip_load_633_B_h_8.1.2 switch=n  phases=2 Linecode=2P_Code10

New Line.OL_633_B_xfmr_633_B_2 length=50 units=ft
~ bus1=meter_633_B.2
~ bus2=xfmr_meter_633_B_2.2 switch=n  phases=1 Linecode=1P_OH_Code9

New Line.trip_line_633_B_h_9 length=50 units=ft
~ bus1=trip_node_633_B_2.1.2
~ bus2=trip_load_633_B_h_9.1.2 switch=n  phases=2 Linecode=2P_Code10

New Line.trip_line_633_B_h_10 length=50 units=ft
~ bus1=trip_node_633_B_2.1.2
~ bus2=trip_load_633_B_h_10.1.2 switch=n  phases=2 Linecode=2P_Code10

New Line.trip_line_633_B_h_11 length=50 units=ft
~ bus1=trip_node_633_B_2.1.2
~ bus2=trip_load_633_B_h_11.1.2 switch=n  phases=2 Linecode=2P_Code10

New Line.trip_line_633_B_h_12 length=50 units=ft
~ bus1=trip_node_633_B_2.1.2
~ bus2=trip_load_633_B_h_12.1.2 switch=n  phases=2 Linecode=2P_Code10

New Line.trip_line_633_B_h_13 length=50 units=ft
~ bus1=trip_node_633_B_2.1.2
~ bus2=trip_load_633_B_h_13.1.2 switch=n  phases=2 Linecode=2P_Code10

New Line.trip_line_633_B_h_14 length=50 units=ft
~ bus1=trip_node_633_B_2.1.2
~ bus2=trip_load_633_B_h_14.1.2 switch=n  phases=2 Linecode=2P_Code10

New Line.trip_line_633_B_h_15 length=50 units=ft
~ bus1=trip_node_633_B_2.1.2
~ bus2=trip_load_633_B_h_15.1.2 switch=n  phases=2 Linecode=2P_Code10

New Line.trip_line_633_B_h_16 length=50 units=ft
~ bus1=trip_node_633_B_2.1.2
~ bus2=trip_load_633_B_h_16.1.2 switch=n  phases=2 Linecode=2P_Code10

New Line.OL_633_B_xfmr_633_B_3 length=50 units=ft
~ bus1=meter_633_B.2
~ bus2=xfmr_meter_633_B_3.2 switch=n  phases=1 Linecode=1P_OH_Code9

New Line.trip_line_633_B_h_17 length=50 units=ft
~ bus1=trip_node_633_B_3.1.2
~ bus2=trip_load_633_B_h_17.1.2 switch=n  phases=2 Linecode=2P_Code10

New Line.trip_line_633_B_h_18 length=50 units=ft
~ bus1=trip_node_633_B_3.1.2
~ bus2=trip_load_633_B_h_18.1.2 switch=n  phases=2 Linecode=2P_Code10

New Line.trip_line_633_B_h_19 length=50 units=ft
~ bus1=trip_node_633_B_3.1.2
~ bus2=trip_load_633_B_h_19.1.2 switch=n  phases=2 Linecode=2P_Code10

New Line.trip_line_633_B_h_20 length=50 units=ft
~ bus1=trip_node_633_B_3.1.2
~ bus2=trip_load_633_B_h_20.1.2 switch=n  phases=2 Linecode=2P_Code10

New Line.trip_line_633_B_h_21 length=50 units=ft
~ bus1=trip_node_633_B_3.1.2
~ bus2=trip_load_633_B_h_21.1.2 switch=n  phases=2 Linecode=2P_Code10

New Line.trip_line_633_B_h_22 length=50 units=ft
~ bus1=trip_node_633_B_3.1.2
~ bus2=trip_load_633_B_h_22.1.2 switch=n  phases=2 Linecode=2P_Code10

New Line.trip_line_633_B_h_23 length=50 units=ft
~ bus1=trip_node_633_B_3.1.2
~ bus2=trip_load_633_B_h_23.1.2 switch=n  phases=2 Linecode=2P_Code10

New Line.trip_line_633_B_h_24 length=50 units=ft
~ bus1=trip_node_633_B_3.1.2
~ bus2=trip_load_633_B_h_24.1.2 switch=n  phases=2 Linecode=2P_Code10

New Line.OL_633_B_xfmr_633_B_4 length=50 units=ft
~ bus1=meter_633_B.2
~ bus2=xfmr_meter_633_B_4.2 switch=n  phases=1 Linecode=1P_OH_Code9

New Line.trip_line_633_B_h_25 length=50 units=ft
~ bus1=trip_node_633_B_4.1.2
~ bus2=trip_load_633_B_h_25.1.2 switch=n  phases=2 Linecode=2P_Code10

New Line.trip_line_633_B_h_26 length=50 units=ft
~ bus1=trip_node_633_B_4.1.2
~ bus2=trip_load_633_B_h_26.1.2 switch=n  phases=2 Linecode=2P_Code10

New Line.trip_line_633_B_h_27 length=50 units=ft
~ bus1=trip_node_633_B_4.1.2
~ bus2=trip_load_633_B_h_27.1.2 switch=n  phases=2 Linecode=2P_Code10

New Line.trip_line_633_B_h_28 length=50 units=ft
~ bus1=trip_node_633_B_4.1.2
~ bus2=trip_load_633_B_h_28.1.2 switch=n  phases=2 Linecode=2P_Code10

New Line.trip_line_633_B_h_29 length=50 units=ft
~ bus1=trip_node_633_B_4.1.2
~ bus2=trip_load_633_B_h_29.1.2 switch=n  phases=2 Linecode=2P_Code10

New Line.trip_line_633_B_h_30 length=50 units=ft
~ bus1=trip_node_633_B_4.1.2
~ bus2=trip_load_633_B_h_30.1.2 switch=n  phases=2 Linecode=2P_Code10

New Line.trip_line_633_B_h_31 length=50 units=ft
~ bus1=trip_node_633_B_4.1.2
~ bus2=trip_load_633_B_h_31.1.2 switch=n  phases=2 Linecode=2P_Code10

New Line.trip_line_633_B_h_32 length=50 units=ft
~ bus1=trip_node_633_B_4.1.2
~ bus2=trip_load_633_B_h_32.1.2 switch=n  phases=2 Linecode=2P_Code10

New Line.OL_633_B_xfmr_633_B_5 length=50 units=ft
~ bus1=meter_633_B.2
~ bus2=xfmr_meter_633_B_5.2 switch=n  phases=1 Linecode=1P_OH_Code9

New Line.trip_line_633_B_h_33 length=50 units=ft
~ bus1=trip_node_633_B_5.1.2
~ bus2=trip_load_633_B_h_33.1.2 switch=n  phases=2 Linecode=2P_Code10

New Line.trip_line_633_B_h_34 length=50 units=ft
~ bus1=trip_node_633_B_5.1.2
~ bus2=trip_load_633_B_h_34.1.2 switch=n  phases=2 Linecode=2P_Code10

New Line.trip_line_633_B_h_35 length=50 units=ft
~ bus1=trip_node_633_B_5.1.2
~ bus2=trip_load_633_B_h_35.1.2 switch=n  phases=2 Linecode=2P_Code10

New Line.trip_line_633_B_h_36 length=50 units=ft
~ bus1=trip_node_633_B_5.1.2
~ bus2=trip_load_633_B_h_36.1.2 switch=n  phases=2 Linecode=2P_Code10

New Line.trip_line_633_B_h_37 length=50 units=ft
~ bus1=trip_node_633_B_5.1.2
~ bus2=trip_load_633_B_h_37.1.2 switch=n  phases=2 Linecode=2P_Code10

New Line.trip_line_633_B_h_38 length=50 units=ft
~ bus1=trip_node_633_B_5.1.2
~ bus2=trip_load_633_B_h_38.1.2 switch=n  phases=2 Linecode=2P_Code10

New Line.trip_line_633_B_h_39 length=50 units=ft
~ bus1=trip_node_633_B_5.1.2
~ bus2=trip_load_633_B_h_39.1.2 switch=n  phases=2 Linecode=2P_Code10

New Line.trip_line_633_B_h_40 length=50 units=ft
~ bus1=trip_node_633_B_5.1.2
~ bus2=trip_load_633_B_h_40.1.2 switch=n  phases=2 Linecode=2P_Code10

...